test/results/inputs/nordic_fault/br27/interfaces.csv
index,subnet_index,bus,imax,vmax,c1,c2,c3,sw1,sw2,sw3,M,smax,R,X,G,B,transformer,tap,shift
1,1,4021,40.0,1.1,0.0001,0.0001,0.0001,0.0001,0.0001,0.0001,0.9,50.0,1.0e-5,0.001,0.0,0.0001,false,1.0,0.0
2,1,4042,40.0,1.1,0.0001,0.0001,0.0001,0.0001,0.0001,0.0001,0.9,50.0,1.0e-5,0.001,0.0,0.0001,false,1.0,0.0
1,2,1,40.0,1.1,0.0001,0.0001,0.0001,0.0001,0.0001,0.0001,0.9,50.0,1.0e-5,0.001,0.0,0.0001,false,1.0,0.0
2,2,2,40.0,1.1,0.0001,0.0001,0.0001,0.0001,0.0001,0.0001,0.9,50.0,1.0e-5,0.001,0.0,0.0001,false,1.0,0.0
